Input Parameters:
   integrator                     = md
   tinit                          = 0
   dt                             = 0.002
   nsteps                         = 100000000
   init-step                      = 0
   simulation-part                = 1
   comm-mode                      = Linear
   nstcomm                        = 100
   bd-fric                        = 0
   ld-seed                        = 551742935
   emtol                          = 10
   emstep                         = 0.01
   niter                          = 20
   fcstep                         = 0
   nstcgsteep                     = 1000
   nbfgscorr                      = 10
   rtpi                           = 0.05
   nstxout                        = 0
   nstvout                        = 0
   nstfout                        = 0
   nstlog                         = 5000000
   nstcalcenergy                  = 100
   nstenergy                      = 50000
   nstxout-compressed             = 500000
   compressed-x-precision         = 1000
   cutoff-scheme                  = Verlet
   nstlist                        = 10
   ns-type                        = Grid
   pbc                            = xyz
   periodic-molecules             = true
   verlet-buffer-tolerance        = 0.005
   rlist                          = 1
   coulombtype                    = PME
   coulomb-modifier               = Potential-shift
   rcoulomb-switch                = 0
   rcoulomb                       = 1
   epsilon-r                      = 1
   epsilon-rf                     = inf
   vdw-type                       = Cut-off
   vdw-modifier                   = Potential-shift
   rvdw-switch                    = 0
   rvdw                           = 1
   DispCorr                       = EnerPres
   table-extension                = 1
   fourierspacing                 = 0.121
   fourier-nx                     = 36
   fourier-ny                     = 36
   fourier-nz                     = 56
   pme-order                      = 4
   ewald-rtol                     = 1e-05
   ewald-rtol-lj                  = 0.001
   lj-pme-comb-rule               = Geometric
   ewald-geometry                 = 0
   epsilon-surface                = 0
   implicit-solvent               = No
   gb-algorithm                   = Still
   nstgbradii                     = 1
   rgbradii                       = 1
   gb-epsilon-solvent             = 80
   gb-saltconc                    = 0
   gb-obc-alpha                   = 1
   gb-obc-beta                    = 0.8
   gb-obc-gamma                   = 4.85
   gb-dielectric-offset           = 0.009
   sa-algorithm                   = Ace-approximation
   sa-surface-tension             = 2.05016
   tcoupl                         = V-rescale
   nsttcouple                     = 10
   nh-chain-length                = 0
   print-nose-hoover-chain-variables = false
   pcoupl                         = Parrinello-Rahman
   pcoupltype                     = Semiisotropic
   nstpcouple                     = 10
   tau-p                          = 5
   compressibility (3x3):
      compressibility[    0]={ 4.50000e-05,  0.00000e+00,  0.00000e+00}
      compressibility[    1]={ 0.00000e+00,  4.50000e-05,  0.00000e+00}
      compressibility[    2]={ 0.00000e+00,  0.00000e+00,  4.50000e-05}
   ref-p (3x3):
      ref-p[    0]={ 1.00000e+00,  0.00000e+00,  0.00000e+00}
      ref-p[    1]={ 0.00000e+00,  1.00000e+00,  0.00000e+00}
      ref-p[    2]={ 0.00000e+00,  0.00000e+00,  1.00000e+00}
   refcoord-scaling               = No
   posres-com (3):
      posres-com[0]= 0.00000e+00
      posres-com[1]= 0.00000e+00
      posres-com[2]= 0.00000e+00
   posres-comB (3):
      posres-comB[0]= 0.00000e+00
      posres-comB[1]= 0.00000e+00
      posres-comB[2]= 0.00000e+00
   QMMM                           = false
   QMconstraints                  = 0
   QMMMscheme                     = 0
   MMChargeScaleFactor            = 1
qm-opts:
   ngQM                           = 0
   constraint-algorithm           = Lincs
   continuation                   = false
   Shake-SOR                      = false
   shake-tol                      = 0.0001
   lincs-order                    = 4
   lincs-iter                     = 1
   lincs-warnangle                = 30
   nwall                          = 0
   wall-type                      = 9-3
   wall-r-linpot                  = -1
   wall-atomtype[0]               = -1
   wall-atomtype[1]               = -1
   wall-density[0]                = 0
   wall-density[1]                = 0
   wall-ewald-zfac                = 3
   pull                           = true
   pull-cylinder-r                = 1.5
   pull-constr-tol                = 1e-06
   pull-print-COM                 = false
   pull-print-ref-value           = true
   pull-print-components          = false
   pull-nstxout                   = 5000
   pull-nstfout                   = 0
   pull-ngroups                   = 5
   pull-group 0:
     atom: not available
     weight: not available
     pbcatom                        = -1
   pull-group 1:
     atom (1):
        atom[0]=337
     weight: not available
     pbcatom                        = -1
   pull-group 2:
     atom (1):
        atom[0]=935
     weight: not available
     pbcatom                        = -1
   pull-group 3:
     atom (6):
        atom[0]=327
        atom[1]=328
        atom[2]=330
        atom[3]=335
        atom[4]=337
        atom[5]=339
     weight: not available
     pbcatom                        = 330
   pull-group 4:
     atom (6):
        atom[0]=930
        atom[1]=931
        atom[2]=935
        atom[3]=936
        atom[4]=938
        atom[5]=939
     weight: not available
     pbcatom                        = 935
   pull-ncoords                   = 2
   pull-coord 0:
   type                           = external-potential
   potential-provider             = AWH
   geometry                       = distance
   group[0]                       = 1
   group[1]                       = 2
   dim (3):
      dim[0]=1
      dim[1]=1
      dim[2]=1
   origin (3):
      origin[0]= 0.00000e+00
      origin[1]= 0.00000e+00
      origin[2]= 0.00000e+00
   vec (3):
      vec[0]= 0.00000e+00
      vec[1]= 0.00000e+00
      vec[2]= 0.00000e+00
   start                          = false
   init                           = 0
   rate                           = 0
   k                              = 0
   kB                             = 0
   pull-coord 1:
   type                           = flat-bottom-high
   geometry                       = distance
   group[0]                       = 3
   group[1]                       = 4
   dim (3):
      dim[0]=1
      dim[1]=1
      dim[2]=1
   origin (3):
      origin[0]= 0.00000e+00
      origin[1]= 0.00000e+00
      origin[2]= 0.00000e+00
   vec (3):
      vec[0]= 0.00000e+00
      vec[1]= 0.00000e+00
      vec[2]= 0.00000e+00
   start                          = false
   init                           = 0.48
   rate                           = 0
   k                              = 128000
   kB                             = 128000
   awh                            = true
   awh-potential                  = convolved
   awh-seed                       = -195431001
   awh-nstout                     = 50000
   awh-nstsample                  = 10
   awh-nsamples-update            = 10
   awh-share-bias-multisim        = false
   awh-nbias                      = 1
   awh1-error-init                = 5
   awh1-growth                    = exp-linear
   awh1-target                    = constant
   awh1-target-beta-scalng        = 0
   awh1-target-cutoff             = 0
   awh1-user-data                 = false
   awh1-share-group               = 0
   awh1-equilibrate-histogram     = true
   awh1-ndim                      = 1
   awh1-dim1:
    coord-provider                 = pull
    coord-index                    = 1
    start                          = 0.25
    end                            = 0.6
    period                         = 0
    force-constant                 = 128000
    diffusion                      = 5e-05
    start                          = 0.25
    end                            = 0.6
    cover-diameter                 = 0
   rotation                       = false
   interactiveMD                  = false
   disre                          = No
   disre-weighting                = Conservative
   disre-mixed                    = false
   dr-fc                          = 1000
   dr-tau                         = 0
   nstdisreout                    = 100
   orire-fc                       = 0
   orire-tau                      = 0
   nstorireout                    = 100
   free-energy                    = no
   cos-acceleration               = 0
   deform (3x3):
      deform[    0]={ 0.00000e+00,  0.00000e+00,  0.00000e+00}
      deform[    1]={ 0.00000e+00,  0.00000e+00,  0.00000e+00}
      deform[    2]={ 0.00000e+00,  0.00000e+00,  0.00000e+00}
   simulated-tempering            = false
   swapcoords                     = no
   userint1                       = 0
   userint2                       = 0
   userint3                       = 0
   userint4                       = 0
   userreal1                      = 0
   userreal2                      = 0
   userreal3                      = 0
   userreal4                      = 0
   applied-forces:
     electric-field:
       x:
         E0                       = 0
         omega                    = 0
         t0                       = 0
         sigma                    = 0
       y:
         E0                       = 0
         omega                    = 0
         t0                       = 0
         sigma                    = 0
       z:
         E0                       = 0
         omega                    = 0
         t0                       = 0
         sigma                    = 0
grpopts:
   nrdf:       19587
   ref-t:         300
   tau-t:         0.5
annealing:          No
annealing-npoints:           0
   acc:	           0           0           0
   nfreeze:           N           N           N
   energygrp-flags[  0]: 0

Changing nstlist from 10 to 40, rlist from 1 to 1.092

Initializing Domain Decomposition on 64 ranks
Dynamic load balancing: locked

NOTE: Periodic molecules are present in this system. Because of this, the domain decomposition algorithm cannot easily determine the minimum cell size that it requires for treating bonded interactions. Instead, domain decomposition will assume that half the non-bonded cut-off will be a suitable lower bound.

Minimum cell size due to bonded interactions: 0.546 nm
Maximum distance for 5 constraints, at 120 deg. angles, all-trans: 0.218 nm
Estimated maximum distance required for P-LINCS: 0.218 nm
Using 32 separate PME ranks
Scaling the initial minimum size with 1/0.8 (option -dds) = 1.25
Optimizing the DD grid for 32 cells with a minimum initial size of 0.683 nm
The maximum allowed number of cells is: X 5 Y 5 Z 9
Domain decomposition grid 4 x 2 x 4, separate PME ranks 32
PME domain decomposition: 4 x 8 x 1
Interleaving PP and PME ranks
This rank does only particle-particle work.

Domain decomposition rank 0, coordinates 0 0 0

The initial number of communication pulses is: X 2 Y 1 Z 1
The initial domain decomposition cell size is: X 0.87 nm Y 1.75 nm Z 1.60 nm

The maximum allowed distance for charge groups involved in interactions is:
                 non-bonded interactions           1.092 nm
(the following are initial values, they could change due to box deformation)
            two-body bonded interactions  (-rdd)   1.092 nm
          multi-body bonded interactions  (-rdd)   0.874 nm
  atoms separated by up to 5 constraints  (-rcon)  0.874 nm

When dynamic load balancing gets turned on, these settings will change to:
The maximum number of communication pulses is: X 2 Y 1 Z 2
The minimum size for domain decomposition cells is 0.546 nm
The requested allowed shrink of DD cells (option -dds) is: 0.80
The allowed shrink of domain decomposition cells is: X 0.62 Y 0.62 Z 0.34
The maximum allowed distance for charge groups involved in interactions is:
                 non-bonded interactions           1.092 nm
            two-body bonded interactions  (-rdd)   1.092 nm
          multi-body bonded interactions  (-rdd)   0.546 nm
  atoms separated by up to 5 constraints  (-rcon)  0.546 nm

Using two step summing over 2 groups of on average 16.0 ranks

This is simulation 0 out of 1 running as a composite GROMACS
multi-simulation job. Setup for this simulation:

Using 64 MPI processes
Using 2 OpenMP threads per MPI process

Pinning threads with an auto-selected logical core stride of 1
System total charge: 0.000
Will do PME sum in reciprocal space for electrostatic interactions.

Using a Gaussian width (1/beta) of 0.320163 nm for Ewald
Potential shift: LJ r^-12: -1.000e+00 r^-6: -1.000e+00, Ewald -1.000e-05
Initialized non-bonded Ewald correction tables, spacing: 9.33e-04 size: 1073

Long Range LJ corr.: <C6> 3.9084e-04
Generated table with 1046 data points for Ewald.
Tabscale = 500 points/nm
Generated table with 1046 data points for LJ6.
Tabscale = 500 points/nm
Generated table with 1046 data points for LJ12.
Tabscale = 500 points/nm
Generated table with 1046 data points for 1-4 COUL.
Tabscale = 500 points/nm
Generated table with 1046 data points for 1-4 LJ6.
Tabscale = 500 points/nm
Generated table with 1046 data points for 1-4 LJ12.
Tabscale = 500 points/nm

Using SIMD 4x8 nonbonded short-range kernels

Using a dual 4x8 pair-list setup updated with dynamic pruning:
  outer list: updated every 40 steps, buffer 0.092 nm, rlist 1.092 nm
  inner list: updated every 12 steps, buffer 0.001 nm, rlist 1.001 nm
At tolerance 0.005 kJ/mol/ps per atom, equivalent classical 1x1 list would be:
  outer list: updated every 40 steps, buffer 0.207 nm, rlist 1.207 nm
  inner list: updated every 12 steps, buffer 0.046 nm, rlist 1.046 nm

Using Lorentz-Berthelot Lennard-Jones combination rule

Will apply potential COM pulling
with 2 pull coordinates and 4 groups
Pull group 1:     1 atoms, mass    14.010
Pull group 2:     1 atoms, mass    14.010
Pull group 3:     6 atoms, mass    76.060
Pull group 4:     6 atoms, mass    76.060

Initializing Parallel LINear Constraint Solver

The number of constraints is 441
There are inter charge-group constraints,
will communicate selected coordinates each lincs iteration

Linking all bonded interactions to atoms

Intra-simulation communication will occur every 10 steps.
Center of mass motion removal mode is Linear
We have the following groups for center of mass motion removal:
  0:  rest

There are: 9365 Atoms
Atom distribution over 32 domains: av 292 stddev 23 min 270 max 315

awh1: initial force correlation block length = 0.02 ps
awh1: force correlation number of blocks = 64
Constraining the starting coordinates (step 0)

Constraining the coordinates at t0-dt (step 0)
RMS relative constraint deviation after constraining: 0.00e+00
Initial temperature: 300.016 K

Started mdrun on rank 0 Tue Mar 27 02:50:58 2018
           Step           Time
              0        0.00000

   Energies (kJ/mol)
           Bond          Angle    Proper Dih.  Improper Dih.          LJ-14
    1.44663e+03    2.92826e+03    3.93934e+03    8.14071e+01    1.38733e+03
     Coulomb-14        LJ (SR)  Disper. corr.   Coulomb (SR)   Coul. recip.
   -3.01084e+04    2.19631e+04   -1.58289e+03   -1.87897e+05    8.55113e+02
    8.64673e+00   -1.86978e+05    2.49885e+04   -1.61990e+05   -1.61984e+05
    Temperature Pres. DC (bar) Pressure (bar)   Constr. rmsd
    3.06879e+02   -2.90437e+02   -7.90910e+01    3.02651e-06

	<====  A V E R A G E S  ====>

	Statistics over 100000001 steps using 1000001 frames

   Energies (kJ/mol)
           Bond          Angle    Proper Dih.  Improper Dih.          LJ-14
    1.42760e+03    2.89669e+03    3.90479e+03    8.31124e+01    1.42167e+03
     Coulomb-14        LJ (SR)  Disper. corr.   Coulomb (SR)   Coul. recip.
   -3.00542e+04    2.17250e+04   -1.58683e+03   -1.87602e+05    8.41836e+02
   COM Pull En.      Potential    Kinetic En.   Total Energy  Conserved En.
   -4.69870e+02   -1.87412e+05    2.44285e+04   -1.62984e+05   -1.24890e+05
    Temperature Pres. DC (bar) Pressure (bar)   Constr. rmsd
    3.00003e+02   -2.91890e+02    1.53719e+00    0.00000e+00

          Box-X          Box-Y          Box-Z
    3.98752e+00    3.45330e+00    6.56444e+00

   Total Virial (kJ/mol)
    8.10924e+03   -7.39818e-01    3.81566e-01
   -6.93921e-01    8.11188e+03    3.68854e-01
    3.75360e-01    3.67985e-01    8.19955e+03

   Pressure (bar)
    1.97419e+00    1.96548e-03    7.07429e-02
   -1.48977e-02    1.74946e+00    1.14585e-01
    7.30177e-02    1.14897e-01    8.87932e-01
